<?xml version="1.0" encoding="UTF-8"?>
<!-- generated on 2018-09-18 15:45:54.118339 by $Id$
  options: -n scenario.net.xml -e 10
-->
<routes xmlns:xsi="http://www.w3.org/2001/XMLSchema-instance" xsi:noNamespaceSchemaLocation="http://sumo.dlr.de/xsd/routes_file.xsd">
    <trip id="0" depart="0.00" from="-gneE14" to="-gneE19"/>
    <trip id="1" depart="1.00" from="gneE19" to="-gneE18"/>
    <trip id="2" depart="2.00" from="-gneE19" to="-gneE14"/>
    <trip id="3" depart="3.00" from="-gneE20" to="gneE19"/>
    <trip id="4" depart="4.00" from="gneE18" to="-gneE14"/>
    <trip id="5" depart="5.00" from="-gneE16" to="gneE20"/>
    <trip id="6" depart="6.00" from="-gneE17" to="-gneE18"/>
    <trip id="7" depart="7.00" from="gneE16" to="gneE17"/>
    <trip id="8" depart="8.00" from="-gneE15" to="-gneE19"/>
    <trip id="9" depart="9.00" from="-gneE14" to="-gneE19"/>
</routes>
