<?xml version="1.0" encoding="UTF-8"?>

<!-- generated on Di 18 Sep 2018 13:45:05 CEST by Netedit Version 0.32.0
<?xml version="1.0" encoding="UTF-8"?>

<configuration xmlns:xsi="http://www.w3.org/2001/XMLSchema-instance" xsi:noNamespaceSchemaLocation="http://sumo.dlr.de/xsd/netconvertConfiguration.xsd">

    <output>
        <output-file value="/home/tchilibou/Schreibtisch/sumo_text/data/scenario1.net.xml"/>
    </output>

    <processing>
        <no-turnarounds value="true"/>
        <offset.disable-normalization value="true"/>
    </processing>

</configuration>
-->

<net version="0.27" xmlns:xsi="http://www.w3.org/2001/XMLSchema-instance" xsi:noNamespaceSchemaLocation="http://sumo.dlr.de/xsd/net_file.xsd">

    <location netOffset="0.00,0.00" convBoundary="-48.40,-10.38,181.14,99.80" origBoundary="10000000000.00,10000000000.00,-10000000000.00,-10000000000.00" projParameter="!"/>

    <edge id=":gneJ11_0" function="internal">
        <lane id=":gneJ11_0_0" index="0" speed="13.89" length="8.50" shape="21.37,29.52 23.23,30.34 25.21,30.62 27.31,30.38 29.54,29.62"/>
    </edge>
    <edge id=":gneJ11_1" function="internal">
        <lane id=":gneJ11_1_0" index="0" speed="13.89" length="9.25" shape="21.37,29.52 23.73,30.93 25.37,31.85 27.06,32.66 29.58,33.75"/>
    </edge>
    <edge id=":gneJ11_2" function="internal">
        <lane id=":gneJ11_2_0" index="0" speed="13.89" length="9.09" shape="21.52,33.84 23.76,32.35 25.37,31.45 27.07,30.70 29.54,29.62"/>
    </edge>
    <edge id=":gneJ11_3" function="internal">
        <lane id=":gneJ11_3_0" index="0" speed="13.89" length="8.42" shape="21.52,33.84 23.20,33.01 25.10,32.73 27.23,32.97 29.58,33.75"/>
    </edge>
    <edge id=":gneJ6_0" function="internal">
        <lane id=":gneJ6_0_0" index="0" speed="13.89" length="8.35" shape="-45.40,84.81 -46.73,84.44 -47.70,83.16 -48.31,80.98 -48.55,77.89"/>
    </edge>
    <edge id=":gneJ6_1" function="internal">
        <lane id=":gneJ6_1_0" index="0" speed="13.89" length="9.51" shape="-45.40,84.81 -48.03,84.64 -48.81,83.75 -47.72,82.15 -44.78,79.82"/>
    </edge>
    <edge id=":gneJ7_0" function="internal">
        <lane id=":gneJ7_0_0" index="0" speed="13.89" length="10.58" shape="-50.03,-8.94 -49.46,-10.29 -47.71,-11.26 -44.77,-11.83 -40.65,-12.02"/>
    </edge>
    <edge id=":gneJ7_1" function="internal">
        <lane id=":gneJ7_1_0" index="0" speed="13.89" length="10.16" shape="-50.03,-8.94 -49.54,-10.54 -47.98,-10.97 -45.37,-10.21 -41.69,-8.28"/>
    </edge>
    <edge id=":gneJ8_0" function="internal">
        <lane id=":gneJ8_0_0" index="0" speed="13.89" length="12.04" shape="112.76,-11.84 117.56,-11.64 120.98,-11.06 123.02,-10.09 123.69,-8.73"/>
    </edge>
    <edge id=":gneJ8_1" function="internal">
        <lane id=":gneJ8_1_0" index="0" speed="13.89" length="4.79" shape="113.55,-8.16 118.01,-9.92"/>
    </edge>
    <edge id=":gneJ8_2" function="internal">
        <lane id=":gneJ8_2_0" index="0" speed="13.89" length="6.77" shape="118.01,-9.92 121.18,-10.60 123.07,-10.20 123.69,-8.73"/>
    </edge>
    <edge id=":gneJ9_0" function="internal">
        <lane id=":gneJ9_0_0" index="0" speed="13.89" length="7.90" shape="122.58,69.29 122.36,72.15 121.80,74.22 120.90,75.49 119.66,75.97"/>
    </edge>
    <edge id=":gneJ9_1" function="internal">
        <lane id=":gneJ9_1_0" index="0" speed="13.89" length="1.86" shape="118.95,71.65 120.62,72.48"/>
    </edge>
    <edge id=":gneJ9_2" function="internal">
        <lane id=":gneJ9_2_0" index="0" speed="13.89" length="8.22" shape="120.62,72.48 122.42,73.37 123.69,74.66 122.77,75.53 119.66,75.97"/>
    </edge>

    <edge id="gneE10" from="gneJ6" to="gneJ11" priority="1">
        <lane id="gneE10_0" index="0" speed="13.89" length="80.68" shape="-44.78,79.82 21.52,33.84"/>
    </edge>
    <edge id="gneE11" from="gneJ7" to="gneJ11" priority="1">
        <lane id="gneE11_0" index="0" speed="13.89" length="73.52" shape="-41.69,-8.28 21.37,29.52"/>
    </edge>
    <edge id="gneE12" from="gneJ11" to="gneJ9" priority="1">
        <lane id="gneE12_0" index="0" speed="13.89" length="97.07" shape="29.58,33.75 118.95,71.65"/>
    </edge>
    <edge id="gneE13" from="gneJ11" to="gneJ8" priority="1">
        <lane id="gneE13_0" index="0" speed="13.89" length="92.12" shape="29.54,29.62 113.55,-8.16"/>
    </edge>
    <edge id="gneE4" from="gneJ6" to="gneJ7" priority="1">
        <lane id="gneE4_0" index="0" speed="13.89" length="86.84" shape="-48.55,77.89 -50.03,-8.94"/>
    </edge>
    <edge id="gneE5" from="gneJ7" to="gneJ8" priority="1">
        <lane id="gneE5_0" index="0" speed="13.89" length="153.42" shape="-40.65,-12.02 112.76,-11.84"/>
    </edge>
    <edge id="gneE6" from="gneJ8" to="gneJ9" priority="1">
        <lane id="gneE6_0" index="0" speed="13.89" length="78.03" shape="123.69,-8.73 122.58,69.29"/>
    </edge>
    <edge id="gneE7" from="gneJ9" to="gneJ6" priority="1">
        <lane id="gneE7_0" index="0" speed="13.89" length="165.30" shape="119.66,75.97 -45.40,84.81"/>
    </edge>

    <tlLogic id="gneJ11" type="static" programID="0" offset="0">
        <phase duration="42" state="GGrr"/>
        <phase duration="3" state="yyrr"/>
        <phase duration="42" state="rrGG"/>
        <phase duration="3" state="rryy"/>
    </tlLogic>
    <tlLogic id="gneJ6" type="static" programID="0" offset="0">
        <phase duration="82" state="GG"/>
        <phase duration="3" state="yy"/>
        <phase duration="5" state="rr"/>
    </tlLogic>
    <tlLogic id="gneJ7" type="static" programID="0" offset="0">
        <phase duration="82" state="GG"/>
        <phase duration="3" state="yy"/>
        <phase duration="5" state="rr"/>
    </tlLogic>
    <tlLogic id="gneJ8" type="static" programID="0" offset="0">
        <phase duration="42" state="Gr"/>
        <phase duration="3" state="yr"/>
        <phase duration="42" state="rG"/>
        <phase duration="3" state="ry"/>
    </tlLogic>
    <tlLogic id="gneJ9" type="static" programID="0" offset="0">
        <phase duration="42" state="Gr"/>
        <phase duration="3" state="yr"/>
        <phase duration="42" state="rG"/>
        <phase duration="3" state="ry"/>
    </tlLogic>

    <junction id="gneJ11" type="traffic_light" x="24.85" y="33.53" incLanes="gneE11_0 gneE10_0" intLanes=":gneJ11_0_0 :gneJ11_1_0 :gneJ11_2_0 :gneJ11_3_0" shape="28.96,35.22 30.21,32.28 30.20,31.07 28.88,28.16 22.20,28.15 20.55,30.90 20.60,32.52 22.43,35.15">
        <request index="0" response="0000" foes="0100" cont="0"/>
        <request index="1" response="0000" foes="1100" cont="0"/>
        <request index="2" response="0011" foes="0011" cont="0"/>
        <request index="3" response="0010" foes="0010" cont="0"/>
    </junction>
    <junction id="gneJ3" type="dead_end" x="181.14" y="55.09" incLanes="" intLanes="" shape="181.14,55.09"/>
    <junction id="gneJ4" type="dead_end" x="22.46" y="99.80" incLanes="" intLanes="" shape="22.46,99.80"/>
    <junction id="gneJ6" type="traffic_light" x="-46.81" y="83.23" incLanes="gneE7_0" intLanes=":gneJ6_0_0 :gneJ6_1_0" shape="-45.31,86.41 -45.48,83.21 -43.87,81.13 -45.69,78.50 -46.95,77.86 -50.15,77.91">
        <request index="0" response="00" foes="00" cont="0"/>
        <request index="1" response="00" foes="00" cont="0"/>
    </junction>
    <junction id="gneJ7" type="traffic_light" x="-48.40" y="-10.38" incLanes="gneE4_0" intLanes=":gneJ7_0_0 :gneJ7_1_0" shape="-51.63,-8.91 -48.43,-8.97 -42.51,-6.91 -40.87,-9.65 -40.65,-10.42 -40.65,-13.62">
        <request index="0" response="00" foes="00" cont="0"/>
        <request index="1" response="00" foes="00" cont="0"/>
    </junction>
    <junction id="gneJ8" type="traffic_light" x="122.06" y="-10.18" incLanes="gneE5_0 gneE13_0" intLanes=":gneJ8_0_0 :gneJ8_2_0" shape="112.77,-13.44 112.76,-10.24 112.90,-9.62 114.21,-6.71 122.09,-8.76 125.29,-8.71">
        <request index="0" response="00" foes="10" cont="0"/>
        <request index="1" response="01" foes="01" cont="1"/>
    </junction>
    <junction id="gneJ9" type="traffic_light" x="120.86" y="74.25" incLanes="gneE6_0 gneE12_0" intLanes=":gneJ9_0_0 :gneJ9_2_0" shape="124.18,69.31 120.98,69.26 119.58,70.18 118.33,73.12 119.58,74.37 119.75,77.57">
        <request index="0" response="00" foes="10" cont="0"/>
        <request index="1" response="01" foes="01" cont="1"/>
    </junction>

    <junction id=":gneJ8_2_0" type="internal" x="118.01" y="-9.92" incLanes=":gneJ8_1_0 gneE5_0" intLanes=":gneJ8_0_0"/>
    <junction id=":gneJ9_2_0" type="internal" x="120.62" y="72.48" incLanes=":gneJ9_1_0 gneE6_0" intLanes=":gneJ9_0_0"/>

    <connection from="gneE10" to="gneE13" fromLane="0" toLane="0" via=":gneJ11_2_0" tl="gneJ11" linkIndex="2" dir="s" state="o"/>
    <connection from="gneE10" to="gneE12" fromLane="0" toLane="0" via=":gneJ11_3_0" tl="gneJ11" linkIndex="3" dir="l" state="o"/>
    <connection from="gneE11" to="gneE13" fromLane="0" toLane="0" via=":gneJ11_0_0" tl="gneJ11" linkIndex="0" dir="r" state="o"/>
    <connection from="gneE11" to="gneE12" fromLane="0" toLane="0" via=":gneJ11_1_0" tl="gneJ11" linkIndex="1" dir="s" state="o"/>
    <connection from="gneE12" to="gneE7" fromLane="0" toLane="0" via=":gneJ9_1_0" tl="gneJ9" linkIndex="1" dir="l" state="o"/>
    <connection from="gneE13" to="gneE6" fromLane="0" toLane="0" via=":gneJ8_1_0" tl="gneJ8" linkIndex="1" dir="l" state="o"/>
    <connection from="gneE4" to="gneE5" fromLane="0" toLane="0" via=":gneJ7_0_0" tl="gneJ7" linkIndex="0" dir="L" state="o"/>
    <connection from="gneE4" to="gneE11" fromLane="0" toLane="0" via=":gneJ7_1_0" tl="gneJ7" linkIndex="1" dir="l" state="o"/>
    <connection from="gneE5" to="gneE6" fromLane="0" toLane="0" via=":gneJ8_0_0" tl="gneJ8" linkIndex="0" dir="l" state="o"/>
    <connection from="gneE6" to="gneE7" fromLane="0" toLane="0" via=":gneJ9_0_0" tl="gneJ9" linkIndex="0" dir="l" state="o"/>
    <connection from="gneE7" to="gneE4" fromLane="0" toLane="0" via=":gneJ6_0_0" tl="gneJ6" linkIndex="0" dir="L" state="o"/>
    <connection from="gneE7" to="gneE10" fromLane="0" toLane="0" via=":gneJ6_1_0" tl="gneJ6" linkIndex="1" dir="l" state="o"/>

    <connection from=":gneJ11_0" to="gneE13" fromLane="0" toLane="0" dir="r" state="M"/>
    <connection from=":gneJ11_1" to="gneE12" fromLane="0" toLane="0" dir="s" state="M"/>
    <connection from=":gneJ11_2" to="gneE13" fromLane="0" toLane="0" dir="s" state="M"/>
    <connection from=":gneJ11_3" to="gneE12" fromLane="0" toLane="0" dir="l" state="M"/>
    <connection from=":gneJ6_0" to="gneE4" fromLane="0" toLane="0" dir="L" state="M"/>
    <connection from=":gneJ6_1" to="gneE10" fromLane="0" toLane="0" dir="l" state="M"/>
    <connection from=":gneJ7_0" to="gneE5" fromLane="0" toLane="0" dir="L" state="M"/>
    <connection from=":gneJ7_1" to="gneE11" fromLane="0" toLane="0" dir="l" state="M"/>
    <connection from=":gneJ8_0" to="gneE6" fromLane="0" toLane="0" dir="l" state="M"/>
    <connection from=":gneJ8_1" to="gneE6" fromLane="0" toLane="0" via=":gneJ8_2_0" dir="l" state="m"/>
    <connection from=":gneJ8_2" to="gneE6" fromLane="0" toLane="0" dir="l" state="M"/>
    <connection from=":gneJ9_0" to="gneE7" fromLane="0" toLane="0" dir="l" state="M"/>
    <connection from=":gneJ9_1" to="gneE7" fromLane="0" toLane="0" via=":gneJ9_2_0" dir="l" state="m"/>
    <connection from=":gneJ9_2" to="gneE7" fromLane="0" toLane="0" dir="l" state="M"/>

</net>
