<?xml version="1.0" encoding="UTF-8"?>

<configuration xmlns:xsi="http://www.w3.org/2001/XMLSchema-instance" xsi:noNamespaceSchemaLocation="http://sumo.dlr.de/xsd/netconvertConfiguration.xsd">

    <input>
        <node-files value="sumo_text.nod.xml"/>
        <edge-files value="sumo_text.edg.xml"/>
    </input>

    <output>
        <output-file value="sumo_text.net.xml"/>
    </output>

    <report>
        <verbose value="true"/>
    </report>

</configuration>
