<?xml version="1.0" encoding="UTF-8"?>
<!-- generated on 2018-09-18 13:57:26.662482 by $Id$
  options: -n scenario1.net.xml -e 10
-->
<routes xmlns:xsi="http://www.w3.org/2001/XMLSchema-instance" xsi:noNamespaceSchemaLocation="http://sumo.dlr.de/xsd/routes_file.xsd">
    <trip id="0" depart="0.00" from="gneE5" to="gneE7"/>
    <trip id="1" depart="1.00" from="gneE7" to="gneE5"/>
    <trip id="2" depart="2.00" from="gneE4" to="gneE10"/>
    <trip id="3" depart="3.00" from="gneE12" to="gneE10"/>
    <trip id="4" depart="4.00" from="gneE12" to="gneE5"/>
    <trip id="5" depart="5.00" from="gneE12" to="gneE4"/>
    <trip id="6" depart="6.00" from="gneE11" to="gneE12"/>
    <trip id="7" depart="7.00" from="gneE6" to="gneE6"/>
    <trip id="8" depart="8.00" from="gneE12" to="gneE11"/>
    <trip id="9" depart="9.00" from="gneE5" to="gneE11">
            <stop lane="gnE5_0" endPos="5" />
    <trip/>
</routes>


